*Heading
** Job name: O0404 Model name: O0404
** Generated by: Abaqus/CAE 2024.HF11
*Preprint, echo=NO, model=NO, history=NO, contact=NO
**
** PARTS
**
*Part, name="FRP Sample"
*Node
      1,          7.5,           0.,         52.5
      2,          7.5,           2.,         52.5
      3,          7.5,           2.,         57.5
      4,          7.5,           0.,         57.5
      5,           0.,           2.,         52.5
      6,           0.,           2.,         57.5
      7,           0.,           0.,         57.5
      8,           0.,           0.,         52.5
      9,          7.5,           2.,         37.5
     10,          7.5,           0.,         37.5
     11,          7.5,           0.,          7.5
     12,          7.5,           2.,          7.5
     13,           0.,           0.,         37.5
     14,           0.,           0.,          7.5
     15,           0.,           2.,          7.5
     16,           0.,           2.,         37.5
     17,           0.,           2.,           0.
     18,           0.,           0.,           0.
     19,          7.5,           2.,           0.
     20,          7.5,           0.,           0.
** ... 926 like lines cut
*Element, type=SC8R
 1,  62, 279,  32,   1,  72, 333,  21,   2
 2, 279, 280,  31,  32, 333, 334,  22,  21
 3, 280, 281,  30,  31, 334, 335,  23,  22
 4, 281, 282,  29,  30, 335, 336,  24,  23
 5, 282, 283,  28,  29, 336, 337,  25,  24
 6, 283, 284,  27,  28, 337, 338,  26,  25
 7, 284,  45,   4,  27, 338,  71,   3,  26
 8,  61, 285, 279,  62,  73, 339, 333,  72
 9, 285, 286, 280, 279, 339, 340, 334, 333
10, 286, 287, 281, 280, 340, 341, 335, 334
11, 287, 288, 282, 281, 341, 342, 336, 335
12, 288, 289, 283, 282, 342, 343, 337, 336
13, 289, 290, 284, 283, 343, 344, 338, 337
14, 290,  46,  45, 284, 344,  70,  71, 338
15,  60, 291, 285,  61,  74, 345, 339,  73
16, 291, 292, 286, 285, 345, 346, 340, 339
17, 292, 293, 287, 286, 346, 347, 341, 340
18, 293, 294, 288, 287, 347, 348, 342, 341
19, 294, 295, 289, 288, 348, 349, 343, 342
20, 295, 296, 290, 289, 349, 350, 344, 343
** ... 392 like lines cut
*Orientation, name=Ori-1
          0.,           0.,           1.,           1.,           0.,           0.
3, 0.
** Region: (Composite layup - 8 plies-1: Generated From Layup), (Controls:EC-1)
*Elset, elset="Composite layup - 8 plies-1", generate
   1,  412,    1
** Section: Composite layup - 8 plies-1
*Shell Section, elset="Composite layup - 8 plies-1", composite, orientation=Ori-1, controls=EC-1, stack direction=ORIENTATION, layup="Composite layup - 8 plies"
1., 3, FRP, 0., Ply-1
1., 3, FRP, 0., Ply-2
1., 3, FRP, 0., Ply-3
1., 3, FRP, 0., Ply-4
1., 3, FRP, 0., Ply-5
1., 3, FRP, 0., Ply-6
1., 3, FRP, 0., Ply-7
1., 3, FRP, 0., Ply-8
*End Part
**  
*Part, name=LoadingTip
*End Part
**  
*Part, name=Wire
*Node
      1,           0.,           0.,           0.
      2,        28.75,           0.,           0.
      3,         57.5,           0.,           0.
      4,  0.326704532,           0.,           0.
      5,  0.653409064,           0.,           0.
      6,  0.980113626,           0.,           0.
      7,   1.30681813,           0.,           0.
      8,   1.63352275,           0.,           0.
      9,   1.96022725,           0.,           0.
     10,   2.28693175,           0.,           0.
     11,   2.61363626,           0.,           0.
     12,     2.940341,           0.,           0.
     13,    3.2670455,           0.,           0.
     14,      3.59375,           0.,           0.
     15,    3.9204545,           0.,           0.
     16,     4.247159,           0.,           0.
     17,   4.57386351,           0.,           0.
     18,   4.90056801,           0.,           0.
     19,   5.22727251,           0.,           0.
     20,   5.55397749,           0.,           0.
** ... 157 like lines cut
*Element, type=T3D2
 1,  1,  4
 2,  4,  5
 3,  5,  6
 4,  6,  7
 5,  7,  8
 6,  8,  9
 7,  9, 10
 8, 10, 11
 9, 11, 12
10, 12, 13
11, 13, 14
12, 14, 15
13, 15, 16
14, 16, 17
15, 17, 18
16, 18, 19
17, 19, 20
18, 20, 21
19, 21, 22
20, 22, 23
** ... 156 like lines cut
*Nset, nset=WireSet, generate
   1,  177,    1
*Elset, elset=WireSet, generate
   1,  176,    1
** Section: WireSection
*Solid Section, elset=WireSet, material=NiTiCo
0.0122718,
*End Part
**  
**
** ASSEMBLY
**
*Assembly, name=Assembly
**  
*Instance, name="FRP Sample", part="FRP Sample"
*End Instance
**  
*Instance, name=LoadingTip, part=LoadingTip
        3.75,           2.,         57.5
        3.75,           2.,         57.5,         3.75,           3.,         57.5,          90.
*Node
      1,           0.,           5.,        5.625
*Nset, nset=LoadingTip-RefPt_, internal
1, 
*Surface, type=CYLINDER, name=SupportTipSurface
START, 4.98097349045873, 4.56422128626171
 CIRCL, -4.98097349045873, 4.56422128626171,           0.,           5.
*Rigid Body, ref node=LoadingTip-RefPt_, analytical surface=SupportTipSurface
*End Instance
**  
*Instance, name=Wire, part=Wire
        0.15,         0.25,           0.
        0.15,         0.25,           0.,         0.15,        -0.75,           0.,          90.
*End Instance
**  
*Instance, name=Wire-lin-1-2, part=Wire
        0.45,         0.25,           0.
        0.45,         0.25,           0.,         0.45,        -0.75,           0.,          90.
*End Instance
**  
*Instance, name=Wire-lin-1-3, part=Wire
        0.75,         0.25,           0.
        0.75,         0.25,           0.,         0.75,        -0.75,           0.,          90.
*End Instance
**  
*Instance, name=Wire-lin-1-4, part=Wire
        1.05,         0.25,           0.
        1.05,         0.25,           0.,         1.05,        -0.75,           0.,          90.
*End Instance
**  
*Instance, name=Wire-lin-1-5, part=Wire
        1.35,         0.25,           0.
        1.35,         0.25,           0.,         1.35,        -0.75,           0.,          90.
*End Instance
**  
*Instance, name=Wire-lin-1-6, part=Wire
        1.65,         0.25,           0.
        1.65,         0.25,           0.,         1.65,        -0.75,           0.,          90.
*End Instance
**  
*Instance, name=Wire-lin-1-7, part=Wire
        1.95,         0.25,           0.
        1.95,         0.25,           0.,         1.95,        -0.75,           0.,          90.
*End Instance
**  
*Instance, name=Wire-lin-1-8, part=Wire
        2.25,         0.25,           0.
        2.25,         0.25,           0.,         2.25,        -0.75,           0.,          90.
*End Instance
**  
*Instance, name=Wire-lin-1-9, part=Wire
        2.55,         0.25,           0.
        2.55,         0.25,           0.,         2.55,        -0.75,           0.,          90.
*End Instance
**  
*Instance, name=Wire-lin-1-10, part=Wire
        2.85,         0.25,           0.
        2.85,         0.25,           0.,         2.85,        -0.75,           0.,          90.
*End Instance
**  
*Instance, name=Wire-lin-1-11, part=Wire
        3.15,         0.25,           0.
        3.15,         0.25,           0.,         3.15,        -0.75,           0.,          90.
*End Instance
**  
*Instance, name=Wire-lin-1-12, part=Wire
        3.45,         0.25,           0.
        3.45,         0.25,           0.,         3.45,        -0.75,           0.,          90.
*End Instance
**  
*Instance, name=Wire-lin-1-13, part=Wire
        3.75,         0.25,           0.
        3.75,         0.25,           0.,         3.75,        -0.75,           0.,          90.
*End Instance
**  
*Instance, name=Wire-lin-1-14, part=Wire
        4.05,         0.25,           0.
        4.05,         0.25,           0.,         4.05,        -0.75,           0.,          90.
*End Instance
**  
*Instance, name=Wire-lin-1-15, part=Wire
        4.35,         0.25,           0.
        4.35,         0.25,           0.,         4.35,        -0.75,           0.,          90.
*End Instance
**  
*Instance, name=Wire-lin-1-16, part=Wire
        4.65,         0.25,           0.
        4.65,         0.25,           0.,         4.65,        -0.75,           0.,          90.
*End Instance
**  
*Instance, name=Wire-lin-1-17, part=Wire
        4.95,         0.25,           0.
        4.95,         0.25,           0.,         4.95,        -0.75,           0.,          90.
*End Instance
**  
*Instance, name=Wire-lin-1-18, part=Wire
        5.25,         0.25,           0.
        5.25,         0.25,           0.,         5.25,        -0.75,           0.,          90.
*End Instance
**  
*Instance, name=Wire-lin-1-19, part=Wire
        5.55,         0.25,           0.
        5.55,         0.25,           0.,         5.55,        -0.75,           0.,          90.
*End Instance
**  
*Instance, name=Wire-lin-1-20, part=Wire
        5.85,         0.25,           0.
        5.85,         0.25,           0.,         5.85,        -0.75,           0.,          90.
*End Instance
**  
*Instance, name=Wire-lin-1-21, part=Wire
        6.15,         0.25,           0.
        6.15,         0.25,           0.,         6.15,        -0.75,           0.,          90.
*End Instance
**  
*Instance, name=Wire-lin-1-22, part=Wire
        6.45,         0.25,           0.
        6.45,         0.25,           0.,         6.45,        -0.75,           0.,          90.
*End Instance
**  
*Instance, name=Wire-lin-1-23, part=Wire
        6.75,         0.25,           0.
        6.75,         0.25,           0.,         6.75,        -0.75,           0.,          90.
*End Instance
**  
*Instance, name=Wire-lin-1-24, part=Wire
        7.05,         0.25,           0.
        7.05,         0.25,           0.,         7.05,        -0.75,           0.,          90.
*End Instance
**  
*Instance, name=Wire-lin-1-25, part=Wire
        7.35,         0.25,           0.
        7.35,         0.25,           0.,         7.35,        -0.75,           0.,          90.
*End Instance
**  
*Instance, name=Wire-lin-2-1, part=Wire
        0.15,         1.75,           0.
        0.15,         1.75,           0.,         0.15,         0.75,           0.,          90.
*End Instance
**  
*Instance, name=Wire-lin-2-2, part=Wire
        0.45,         1.75,           0.
        0.45,         1.75,           0.,         0.45,         0.75,           0.,          90.
*End Instance
**  
*Instance, name=Wire-lin-2-3, part=Wire
        0.75,         1.75,           0.
        0.75,         1.75,           0.,         0.75,         0.75,           0.,          90.
*End Instance
**  
*Instance, name=Wire-lin-2-4, part=Wire
        1.05,         1.75,           0.
        1.05,         1.75,           0.,         1.05,         0.75,           0.,          90.
*End Instance
**  
*Instance, name=Wire-lin-2-5, part=Wire
        1.35,         1.75,           0.
        1.35,         1.75,           0.,         1.35,         0.75,           0.,          90.
*End Instance
**  
*Instance, name=Wire-lin-2-6, part=Wire
        1.65,         1.75,           0.
        1.65,         1.75,           0.,         1.65,         0.75,           0.,          90.
*End Instance
**  
*Instance, name=Wire-lin-2-7, part=Wire
        1.95,         1.75,           0.
        1.95,         1.75,           0.,         1.95,         0.75,           0.,          90.
*End Instance
**  
*Instance, name=Wire-lin-2-8, part=Wire
        2.25,         1.75,           0.
        2.25,         1.75,           0.,         2.25,         0.75,           0.,          90.
*End Instance
**  
*Instance, name=Wire-lin-2-9, part=Wire
        2.55,         1.75,           0.
        2.55,         1.75,           0.,         2.55,         0.75,           0.,          90.
*End Instance
**  
*Instance, name=Wire-lin-2-10, part=Wire
        2.85,         1.75,           0.
        2.85,         1.75,           0.,         2.85,         0.75,           0.,          90.
*End Instance
**  
*Instance, name=Wire-lin-2-11, part=Wire
        3.15,         1.75,           0.
        3.15,         1.75,           0.,         3.15,         0.75,           0.,          90.
*End Instance
**  
*Instance, name=Wire-lin-2-12, part=Wire
        3.45,         1.75,           0.
        3.45,         1.75,           0.,         3.45,         0.75,           0.,          90.
*End Instance
**  
*Instance, name=Wire-lin-2-13, part=Wire
        3.75,         1.75,           0.
        3.75,         1.75,           0.,         3.75,         0.75,           0.,          90.
*End Instance
**  
*Instance, name=Wire-lin-2-14, part=Wire
        4.05,         1.75,           0.
        4.05,         1.75,           0.,         4.05,         0.75,           0.,          90.
*End Instance
**  
*Instance, name=Wire-lin-2-15, part=Wire
        4.35,         1.75,           0.
        4.35,         1.75,           0.,         4.35,         0.75,           0.,          90.
*End Instance
**  
*Instance, name=Wire-lin-2-16, part=Wire
        4.65,         1.75,           0.
        4.65,         1.75,           0.,         4.65,         0.75,           0.,          90.
*End Instance
**  
*Instance, name=Wire-lin-2-17, part=Wire
        4.95,         1.75,           0.
        4.95,         1.75,           0.,         4.95,         0.75,           0.,          90.
*End Instance
**  
*Instance, name=Wire-lin-2-18, part=Wire
        5.25,         1.75,           0.
        5.25,         1.75,           0.,         5.25,         0.75,           0.,          90.
*End Instance
**  
*Instance, name=Wire-lin-2-19, part=Wire
        5.55,         1.75,           0.
        5.55,         1.75,           0.,         5.55,         0.75,           0.,          90.
*End Instance
**  
*Instance, name=Wire-lin-2-20, part=Wire
        5.85,         1.75,           0.
        5.85,         1.75,           0.,         5.85,         0.75,           0.,          90.
*End Instance
**  
*Instance, name=Wire-lin-2-21, part=Wire
        6.15,         1.75,           0.
        6.15,         1.75,           0.,         6.15,         0.75,           0.,          90.
*End Instance
**  
*Instance, name=Wire-lin-2-22, part=Wire
        6.45,         1.75,           0.
        6.45,         1.75,           0.,         6.45,         0.75,           0.,          90.
*End Instance
**  
*Instance, name=Wire-lin-2-23, part=Wire
        6.75,         1.75,           0.
        6.75,         1.75,           0.,         6.75,         0.75,           0.,          90.
*End Instance
**  
*Instance, name=Wire-lin-2-24, part=Wire
        7.05,         1.75,           0.
        7.05,         1.75,           0.,         7.05,         0.75,           0.,          90.
*End Instance
**  
*Instance, name=Wire-lin-2-25, part=Wire
        7.35,         1.75,           0.
        7.35,         1.75,           0.,         7.35,         0.75,           0.,          90.
*End Instance
**  
*Nset, nset=FRPSampleSet, instance="FRP Sample", generate
   1,  946,    1
*Elset, elset=FRPSampleSet, instance="FRP Sample", generate
   1,  412,    1
*Nset, nset=LateralSymmetry, instance="FRP Sample"
   1,   2,   3,   4,   9,  10,  11,  12,  19,  20,  21,  22,  23,  24,  25,  26
  27,  28,  29,  30,  31,  32,  81,  82,  83,  84,  85,  86,  87,  88,  89,  90
  91,  92,  93,  94,  95,  96,  97,  98,  99, 100, 101, 102, 103, 104, 105, 106
 107, 108, 109, 110, 111, 112, 113, 114, 115, 116, 117, 118, 119, 120, 121, 122
 123, 124, 125, 126, 203, 204, 205, 206, 207, 208, 209, 210, 211, 212, 223, 224
 225, 226, 227, 228, 229, 230, 231, 232, 233, 234, 235, 236, 265, 266, 267, 268
 269, 270, 271, 272, 273, 274, 275, 276, 277, 278
*Elset, elset=LateralSymmetry, instance="FRP Sample"
   1,   2,   3,   4,   5,   6,   7,  71,  72,  73,  74,  75,  76,  77,  78,  79
  80,  81,  82,  83,  84,  85,  86,  87,  88,  89,  90,  91,  92,  93,  94, 245
 246, 247, 248, 249, 250, 372, 374, 376, 378, 380, 382, 384, 386, 388, 390, 392
 394, 396, 398, 400
*Nset, nset=LoadingSet, instance="FRP Sample"
  3,  6, 63, 64, 65, 66, 67, 68, 69, 70, 71
*Elset, elset=LoadingSet, instance="FRP Sample", generate
  7,  70,   7
*Nset, nset=LoadingTip, instance=LoadingTip
 1,
*Nset, nset=LongitudinalSymmetry, instance="FRP Sample"
  3,  4,  6,  7, 45, 46, 47, 48, 49, 50, 51, 52, 53, 63, 64, 65
 66, 67, 68, 69, 70, 71
*Elset, elset=LongitudinalSymmetry, instance="FRP Sample", generate
  7,  70,   7
*Nset, nset=SupportsSet, instance="FRP Sample"
  11,  14, 183, 184, 185, 186, 187
*Elset, elset=SupportsSet, instance="FRP Sample"
  94, 118, 142, 166, 190, 214, 215, 221, 227, 233, 239, 245
*Nset, nset=WiresSet, instance=Wire, generate
   1,  177,    1
*Nset, nset=WiresSet, instance=Wire-lin-1-2, generate
   1,  177,    1
*Nset, nset=WiresSet, instance=Wire-lin-1-3, generate
   1,  177,    1
*Nset, nset=WiresSet, instance=Wire-lin-1-4, generate
   1,  177,    1
*Nset, nset=WiresSet, instance=Wire-lin-1-5, generate
   1,  177,    1
*Nset, nset=WiresSet, instance=Wire-lin-1-6, generate
   1,  177,    1
*Nset, nset=WiresSet, instance=Wire-lin-1-7, generate
   1,  177,    1
*Nset, nset=WiresSet, instance=Wire-lin-1-8, generate
   1,  177,    1
*Nset, nset=WiresSet, instance=Wire-lin-1-9, generate
   1,  177,    1
*Nset, nset=WiresSet, instance=Wire-lin-1-10, generate
   1,  177,    1
*Nset, nset=WiresSet, instance=Wire-lin-1-11, generate
   1,  177,    1
*Nset, nset=WiresSet, instance=Wire-lin-1-12, generate
   1,  177,    1
*Nset, nset=WiresSet, instance=Wire-lin-1-13, generate
   1,  177,    1
*Nset, nset=WiresSet, instance=Wire-lin-1-14, generate
   1,  177,    1
*Nset, nset=WiresSet, instance=Wire-lin-1-15, generate
   1,  177,    1
*Nset, nset=WiresSet, instance=Wire-lin-1-16, generate
   1,  177,    1
*Nset, nset=WiresSet, instance=Wire-lin-1-17, generate
   1,  177,    1
*Nset, nset=WiresSet, instance=Wire-lin-1-18, generate
   1,  177,    1
*Nset, nset=WiresSet, instance=Wire-lin-1-19, generate
   1,  177,    1
*Nset, nset=WiresSet, instance=Wire-lin-1-20, generate
   1,  177,    1
*Nset, nset=WiresSet, instance=Wire-lin-1-21, generate
** ... 59 like lines cut
*Elset, elset=WiresSet, instance=Wire, generate
   1,  176,    1
*Elset, elset=WiresSet, instance=Wire-lin-1-2, generate
   1,  176,    1
*Elset, elset=WiresSet, instance=Wire-lin-1-3, generate
   1,  176,    1
*Elset, elset=WiresSet, instance=Wire-lin-1-4, generate
   1,  176,    1
*Elset, elset=WiresSet, instance=Wire-lin-1-5, generate
   1,  176,    1
*Elset, elset=WiresSet, instance=Wire-lin-1-6, generate
   1,  176,    1
*Elset, elset=WiresSet, instance=Wire-lin-1-7, generate
   1,  176,    1
*Elset, elset=WiresSet, instance=Wire-lin-1-8, generate
   1,  176,    1
*Elset, elset=WiresSet, instance=Wire-lin-1-9, generate
   1,  176,    1
*Elset, elset=WiresSet, instance=Wire-lin-1-10, generate
   1,  176,    1
*Elset, elset=WiresSet, instance=Wire-lin-1-11, generate
   1,  176,    1
*Elset, elset=WiresSet, instance=Wire-lin-1-12, generate
   1,  176,    1
*Elset, elset=WiresSet, instance=Wire-lin-1-13, generate
   1,  176,    1
*Elset, elset=WiresSet, instance=Wire-lin-1-14, generate
   1,  176,    1
*Elset, elset=WiresSet, instance=Wire-lin-1-15, generate
   1,  176,    1
*Elset, elset=WiresSet, instance=Wire-lin-1-16, generate
   1,  176,    1
*Elset, elset=WiresSet, instance=Wire-lin-1-17, generate
   1,  176,    1
*Elset, elset=WiresSet, instance=Wire-lin-1-18, generate
   1,  176,    1
*Elset, elset=WiresSet, instance=Wire-lin-1-19, generate
   1,  176,    1
*Elset, elset=WiresSet, instance=Wire-lin-1-20, generate
   1,  176,    1
*Elset, elset=WiresSet, instance=Wire-lin-1-21, generate
** ... 59 like lines cut
*Elset, elset=_FRPSupportSurface_S5, internal, instance="FRP Sample"
   1,   2,   3,   4,   5,   6,   7,  71,  72,  73,  74,  75,  76,  77,  78,  79
  80,  81,  82,  83,  84,  85,  86,  87,  88,  89,  90,  91,  92,  93,  94, 215
 216, 217, 218, 219, 220, 251, 252, 281, 282, 283, 284, 285, 286, 371, 372
*Elset, elset=_FRPSupportSurface_S1, internal, instance="FRP Sample", generate
   1,  412,    1
*Elset, elset=_FRPSupportSurface_S2, internal, instance="FRP Sample", generate
   1,  412,    1
*Elset, elset=_FRPSupportSurface_S4, internal, instance="FRP Sample"
   7,  14,  21,  28,  35,  42,  49,  56,  63,  70,  71,  95, 119, 143, 167, 191
 220, 226, 232, 238, 244, 250, 251, 253, 255, 257, 259, 261, 263, 265, 267, 269
 271, 273, 275, 277, 279
*Elset, elset=_FRPSupportSurface_S3, internal, instance="FRP Sample"
  64,  65,  66,  67,  68,  69,  70, 191, 192, 193, 194, 195, 196, 197, 198, 199
 200, 201, 202, 203, 204, 205, 206, 207, 208, 209, 210, 211, 212, 213, 214, 245
 246, 247, 248, 249, 250
*Elset, elset=_FRPSupportSurface_S6, internal, instance="FRP Sample"
 215, 221, 227, 233, 239, 245, 372, 374, 376, 378, 380, 382, 384, 386, 388, 390
 392, 394, 396, 398, 400
*Surface, type=ELEMENT, name=FRPSupportSurface
_FRPSupportSurface_S5, S5
_FRPSupportSurface_S1, S1
_FRPSupportSurface_S2, S2
_FRPSupportSurface_S4, S4
_FRPSupportSurface_S6, S6
_FRPSupportSurface_S3, S3
** Constraint: FRP_SMA_bond
*Embedded Element, host elset=FRPSampleSet
WiresSet
*End Assembly
** 
** ELEMENT CONTROLS
** 
*Section Controls, name=EC-1, second order accuracy=YES
1., 1., 1.
*Amplitude, name=LinearIncrease
             0.,              0.,              1.,              1.
** 
** MATERIALS
** 
*Material, name=FRP
*Damage Initiation, criterion=HASHIN, alpha=1.
 535.8, 291.98,  535.8, 291.98,    70., 145.99
*Damage Evolution, type=ENERGY
 27.5,  10., 27.5,  10.
*Damage Stabilization
1e-07,1e-07,1e-07,1e-07
*Density
 1.28e-09,
*Elastic, type=LAMINA
32776.,32776.,   0.3, 5100., 2000., 2000.
*Material, name=NiTiCo
*SUPERELASTIC
20334.,   0.33, 0.0154,   858.,   887.,   660.,   645.,   810.
     0.,
*SUPERELASTIC HARDENING
 896., 0.0625
1146., 0.0875
1381., 0.1125
1753., 0.1375
2046., 0.1625
*Density
 6.45e-09,
*Elastic
34197., 0.33
*Expansion
1.,
** 
** INTERACTION PROPERTIES
** 
*Surface Interaction, name=RigidBodyContact
1.,
*Friction
0.,
*Surface Behavior, pressure-overclosure=HARD
** 
** BOUNDARY CONDITIONS
** 
** Name: BCLoadingTip Type: Displacement/Rotation
*Boundary
LoadingTip, 1, 1
LoadingTip, 2, 2
LoadingTip, 3, 3
LoadingTip, 4, 4
LoadingTip, 5, 5
LoadingTip, 6, 6
** Name: BCSupports Type: Displacement/Rotation
*Boundary
SupportsSet, 2, 2
** Name: LateralSymmetry Type: Symmetry/Antisymmetry/Encastre
*Boundary
LateralSymmetry, XSYMM
** Name: LongitudinalSymmetry Type: Symmetry/Antisymmetry/Encastre
*Boundary
LongitudinalSymmetry, ZSYMM
** 
** PREDEFINED FIELDS
** 
** Name: PrestrainTemperature   Type: Temperature
*Initial Conditions, type=TEMPERATURE
WiresSet, 0.
** 
** INTERACTIONS
** 
** Interaction: LoadingTipContact
*Contact Pair, interaction=RigidBodyContact, type=SURFACE TO SURFACE, tracking=STATE
FRPSupportSurface, LoadingTip.SupportTipSurface
** ----------------------------------------------------------------
** 
** STEP: WirePrestrain
** 
*Step, name=WirePrestrain, nlgeom=YES, inc=1000000
*Static
0.001, 1., 1e-06, 0.1
** 
** PREDEFINED FIELDS
** 
** Name: PrestrainTemperature   Type: Temperature
*Temperature
WiresSet, -0.04
** 
** OUTPUT REQUESTS
** 
*Restart, write, frequency=0
*Output, field, frequency=0
*Output, history, frequency=0
*End Step
** ----------------------------------------------------------------
** 
** STEP: BendingTest
** 
*Step, name=BendingTest, nlgeom=YES, inc=10000000
*Static
0.0001, 1., 1e-07, 0.01
** 
** BOUNDARY CONDITIONS
** 
** Name: BCLoadingTip Type: Displacement/Rotation
*Boundary, amplitude=LinearIncrease
LoadingTip, 1, 1
LoadingTip, 2, 2, -20.
LoadingTip, 3, 3
LoadingTip, 4, 4
LoadingTip, 5, 5
LoadingTip, 6, 6
** 
** OUTPUT REQUESTS
** 
*Restart, write, frequency=0
** 
** FIELD OUTPUT: DefaultFieldOutput
** 
*Output, field
*Node Output
RF, U
*Element Output, directions=YES
LE, PE, S, PEEQ
** 
** FIELD OUTPUT: FRPFieldOutput
** 
*Node Output, nset=FRPSampleSet
CF, 
*Element Output, elset=FRPSampleSet, directions=YES
DAMAGEFC, DAMAGEFT, DAMAGEMC, DAMAGEMT, DAMAGESHR
*Contact Output, nset=FRPSampleSet
CSTRESS, 
** 
** HISTORY OUTPUT: ForceDisplacement
** 
*Output, history
*Node Output, nset=LoadingTip
RF2, U2
*End Step
